<routes>
	<route id="RU1" name="U1" type="subway">
		<station stationId="F1" />
		<station stationId="F2" />
		<station stationId="F3" />
		<station stationId="F4" />
		<station stationId="F5" />
		<station stationId="N1" />
		<station stationId="N2" />
		<station stationId="N3" />
		<station stationId="N4" />
		<station stationId="N5" />
		<station stationId="N6" />
		<station stationId="N7" />
		<station stationId="N8" />
		<station stationId="N9" />
		<station stationId="N10" />
		<station stationId="N11" />
		<station stationId="N12" />
		<station stationId="N13" />
		<station stationId="N14" />
		<station stationId="N15" />
		<station stationId="N16" />
		<station stationId="N17" />
		<station stationId="N18" />
		<station stationId="N19" />
		<station stationId="N20" />
		<station stationId="N21" />
	</route>
</routes>