<?xml version="1.0" encoding="UTF-8"?>
<!DOCTYPE vehicles SYSTEM "nv_routes.dtd">
<routes>
	<route id="SU1" name="U1" type="subway">
		<station id="N1" />
	</route>
</routes>